
     RDKit          3D

104107  0  0  0  0  0  0  0  0999 V2000
   22.0734  -15.9676   24.8983 N   0  0  0  0  0  0  0  0  0  0  0  0
   16.0676  -16.0912   21.3484 C   0  0  2  0  0  0  0  0  0  0  0  0
   16.2489  -14.5506   21.3132 C   0  0  0  0  0  0  0  0  0  0  0  0
   15.3642  -13.8858   21.8554 O   0  0  0  0  0  0  0  0  0  0  0  0
   15.3612  -16.6345   20.0804 C   0  0  0  0  0  0  0  0  0  0  0  0
   14.1622  -15.8055   19.5809 C   0  0  0  0  0  0  0  0  0  0  0  0
   12.8831  -16.0365   20.3867 C   0  0  0  0  0  0  0  0  0  0  0  0
   12.0490  -14.8261   20.3902 N   0  0  0  0  0  0  0  0  0  0  0  0
   12.2307  -13.7346   21.1554 C   0  0  0  0  0  0  0  0  0  0  0  0
   11.6542  -13.6122   22.3592 N   0  0  0  0  0  0  0  0  0  0  0  0
   12.9977  -12.7336   20.7092 N   0  0  0  0  0  4  0  0  0  0  0  0
   22.4871  -14.5832   24.7291 C   0  0  0  0  0  0  0  0  0  0  0  0
   23.0742  -16.9812   25.1888 C   0  0  0  0  0  0  0  0  0  0  0  0
   15.7485  -13.0466   18.0037 C   0  0  0  0  0  0  0  0  0  0  0  0
   15.4435  -12.5522   16.5818 C   0  0  0  0  0  0  0  0  0  0  0  0
   17.2157  -12.9071   18.4600 C   0  0  0  0  0  0  0  0  0  0  0  0
   17.3007  -17.2051   24.3789 C   0  0  1  0  0  0  0  0  0  0  0  0
   15.3403  -16.5524   22.5387 N   0  0  0  0  0  0  0  0  0  0  0  0
   16.4291  -18.8914   22.4886 O   0  0  0  0  0  0  0  0  0  0  0  0
   15.5096  -14.7802   14.8302 S   0  0  0  0  0  0  0  0  0  0  0  0
   17.0517  -16.8911   25.7288 C   0  0  0  0  0  0  0  0  0  0  0  0
   14.6723  -11.6154   16.3689 O   0  0  0  0  0  0  0  0  0  0  0  0
   14.8498  -18.2922   24.3898 O   0  0  0  0  0  0  0  0  0  0  0  0
   18.0782  -16.3898   26.5429 C   0  0  0  0  0  0  0  0  0  0  0  0
   17.1901  -12.7980   14.7841 N   0  0  0  0  0  0  0  0  0  0  0  0
   19.3681  -16.2212   26.0157 C   0  0  0  0  0  0  0  0  0  0  0  0
   19.6548  -16.5402   24.6665 C   0  0  0  0  0  0  0  0  0  0  0  0
   20.9701  -16.3895   24.1379 C   0  0  0  0  0  0  0  0  0  0  0  0
   21.2153  -16.6799   22.7823 C   0  0  0  0  0  0  0  0  0  0  0  0
   20.1792  -17.1306   21.9524 C   0  0  0  0  0  0  0  0  0  0  0  0
   18.8872  -17.3039   22.4747 C   0  0  0  0  0  0  0  0  0  0  0  0
   18.6023  -17.0183   23.8292 C   0  0  0  0  0  0  0  0  0  0  0  0
   17.3233  -13.9530   20.7217 N   0  0  0  0  0  0  0  0  0  0  0  0
   17.7366  -14.0949   19.3031 C   0  0  2  0  0  0  0  0  0  0  0  0
   16.1165  -13.2406   15.4458 C   0  0  0  0  0  0  0  0  0  0  0  0
   19.2540  -14.3887   19.1887 C   0  0  0  0  0  0  0  0  0  0  0  0
   20.1250  -13.4168   19.9857 C   0  0  0  0  0  0  0  0  0  0  0  0
   17.5821  -13.6627   13.7594 C   0  0  0  0  0  0  0  0  0  0  0  0
   19.6438  -13.3569   21.4334 C   0  0  0  0  0  0  0  0  0  0  0  0
   16.7904  -14.7762   13.6490 C   0  0  0  0  0  0  0  0  0  0  0  0
   18.1548  -12.9942   21.4858 C   0  0  0  0  0  0  0  0  0  0  0  0
   15.9149  -17.9043   23.4502 S   0  0  0  0  0  4  0  0  0  0  0  0
   17.0905  -16.4941   21.3861 H   0  0  0  0  0  0  0  0  0  0  0  0
   15.6982  -14.5076   20.3620 H   0  0  0  0  0  0  0  0  0  0  0  0
   15.0956  -13.1438   21.2575 H   0  0  0  0  0  0  0  0  0  0  0  0
   16.1044  -16.6768   19.2706 H   0  0  0  0  0  0  0  0  0  0  0  0
   14.9529  -17.6168   20.3601 H   0  0  0  0  0  0  0  0  0  0  0  0
   14.4257  -14.7394   19.6439 H   0  0  0  0  0  0  0  0  0  0  0  0
   13.9562  -16.1240   18.5484 H   0  0  0  0  0  0  0  0  0  0  0  0
   12.3165  -16.8649   19.9362 H   0  0  0  0  0  0  0  0  0  0  0  0
   13.1562  -16.2824   21.4235 H   0  0  0  0  0  0  0  0  0  0  0  0
   12.0731  -14.4808   19.4201 H   0  0  0  0  0  0  0  0  0  0  0  0
   11.3549  -13.2610   20.6878 H   0  0  0  0  0  0  0  0  0  0  0  0
   12.2699  -14.0192   23.0777 H   0  0  0  0  0  0  0  0  0  0  0  0
   11.4981  -12.6153   22.5655 H   0  0  0  0  0  0  0  0  0  0  0  0
   12.5722  -11.8325   20.9699 H   0  0  0  0  0  0  0  0  0  0  0  0
   13.9349  -12.8053   21.1303 H   0  0  0  0  0  0  0  0  0  0  0  0
   13.0765  -12.7923   19.6839 H   0  0  0  0  0  0  0  0  0  0  0  0
   23.5165  -14.5528   24.3427 H   0  0  0  0  0  0  0  0  0  0  0  0
   21.8133  -14.0836   24.0175 H   0  0  0  0  0  0  0  0  0  0  0  0
   22.4441  -14.0665   25.6992 H   0  0  0  0  0  0  0  0  0  0  0  0
   22.6435  -17.9797   25.0233 H   0  0  0  0  0  0  0  0  0  0  0  0
   23.9409  -16.8412   24.5260 H   0  0  0  0  0  0  0  0  0  0  0  0
   23.3956  -16.8894   26.2368 H   0  0  0  0  0  0  0  0  0  0  0  0
   15.1212  -12.4737   18.7026 H   0  0  0  0  0  0  0  0  0  0  0  0
   15.5376  -14.1263   17.9976 H   0  0  0  0  0  0  0  0  0  0  0  0
   14.6031  -13.2589   16.5164 H   0  0  0  0  0  0  0  0  0  0  0  0
   17.8479  -12.8173   17.5642 H   0  0  0  0  0  0  0  0  0  0  0  0
   17.2611  -12.0184   19.1065 H   0  0  0  0  0  0  0  0  0  0  0  0
   17.0316  -16.1783   24.0904 H   0  0  0  0  0  0  0  0  0  0  0  0
   15.3013  -15.7540   23.1882 H   0  0  0  0  0  0  0  0  0  0  0  0
   16.8431  -19.6453   22.9790 H   0  0  0  0  0  0  0  0  0  0  0  0
   16.2488  -16.1393   25.7349 H   0  0  0  0  0  0  0  0  0  0  0  0
   16.8374  -17.8728   26.1764 H   0  0  0  0  0  0  0  0  0  0  0  0
   15.0139  -10.7992   16.8132 H   0  0  0  0  0  0  0  0  0  0  0  0
   13.9752  -18.2643   23.9268 H   0  0  0  0  0  0  0  0  0  0  0  0
   17.7485  -15.4029   26.8995 H   0  0  0  0  0  0  0  0  0  0  0  0
   18.2127  -17.1785   27.2979 H   0  0  0  0  0  0  0  0  0  0  0  0
   16.9697  -11.8791   14.3743 H   0  0  0  0  0  0  0  0  0  0  0  0
   19.6222  -15.1589   26.1459 H   0  0  0  0  0  0  0  0  0  0  0  0
   19.9539  -16.9696   26.5694 H   0  0  0  0  0  0  0  0  0  0  0  0
   19.4181  -15.5072   24.3719 H   0  0  0  0  0  0  0  0  0  0  0  0
   21.1932  -17.4356   24.3947 H   0  0  0  0  0  0  0  0  0  0  0  0
   21.6045  -15.7569   22.3277 H   0  0  0  0  0  0  0  0  0  0  0  0
   21.8874  -17.5493   22.8332 H   0  0  0  0  0  0  0  0  0  0  0  0
   20.0943  -16.4067   21.1286 H   0  0  0  0  0  0  0  0  0  0  0  0
   20.4879  -18.1546   21.6954 H   0  0  0  0  0  0  0  0  0  0  0  0
   18.2200  -16.6677   21.8746 H   0  0  0  0  0  0  0  0  0  0  0  0
   18.7520  -18.3945   22.4252 H   0  0  0  0  0  0  0  0  0  0  0  0
   18.3422  -15.9828   23.5649 H   0  0  0  0  0  0  0  0  0  0  0  0
   17.2581  -14.9808   18.8602 H   0  0  0  0  0  0  0  0  0  0  0  0
   16.7627  -13.7789   16.1549 H   0  0  0  0  0  0  0  0  0  0  0  0
   19.4402  -15.4075   19.5593 H   0  0  0  0  0  0  0  0  0  0  0  0
   19.5269  -14.2738   18.1293 H   0  0  0  0  0  0  0  0  0  0  0  0
   21.1699  -13.7598   19.9623 H   0  0  0  0  0  0  0  0  0  0  0  0
   20.0533  -12.4146   19.5379 H   0  0  0  0  0  0  0  0  0  0  0  0
   17.5444  -13.1133   12.8071 H   0  0  0  0  0  0  0  0  0  0  0  0
   18.5971  -14.0108   14.0013 H   0  0  0  0  0  0  0  0  0  0  0  0
   19.7949  -14.3384   21.9067 H   0  0  0  0  0  0  0  0  0  0  0  0
   20.2182  -12.5870   21.9693 H   0  0  0  0  0  0  0  0  0  0  0  0
   17.4128  -15.6712   13.7958 H   0  0  0  0  0  0  0  0  0  0  0  0
   16.3327  -14.7721   12.6488 H   0  0  0  0  0  0  0  0  0  0  0  0
   18.0189  -11.9888   21.0608 H   0  0  0  0  0  0  0  0  0  0  0  0
   17.8334  -13.0283   22.5372 H   0  0  0  0  0  0  0  0  0  0  0  0
  1 12  1  0
  1 13  1  0
  1 28  1  0
  2  3  1  0
  2  5  1  0
  2 18  1  0
  3  4  1  0
  3 33  1  0
  5  6  1  0
  6  7  1  0
  7  8  1  0
  8  9  1  0
  9 10  1  0
  9 11  1  0
 14 15  1  0
 14 16  1  0
 15 22  1  0
 15 35  1  0
 34 16  1  0
 17 21  1  0
 17 32  1  0
 17 42  1  0
 18 42  1  0
 42 19  1  0
 20 35  1  0
 20 40  1  0
 21 24  1  0
 23 42  1  0
 24 26  1  0
 25 35  1  0
 25 38  1  0
 26 27  1  0
 27 28  1  0
 27 32  1  0
 28 29  1  0
 29 30  1  0
 30 31  1  0
 31 32  1  0
 33 34  1  0
 33 41  1  0
 34 36  1  0
 36 37  1  0
 37 39  1  0
 38 40  1  0
 39 41  1  0
  2 43  1  6
  3 44  1  0
  4 45  1  0
  5 46  1  0
  5 47  1  0
  6 48  1  0
  6 49  1  0
  7 50  1  0
  7 51  1  0
  8 52  1  0
  9 53  1  0
 10 54  1  0
 10 55  1  0
 11 56  1  0
 11 57  1  0
 11 58  1  0
 12 59  1  0
 12 60  1  0
 12 61  1  0
 13 62  1  0
 13 63  1  0
 13 64  1  0
 14 65  1  0
 14 66  1  0
 15 67  1  0
 16 68  1  0
 16 69  1  0
 17 70  1  1
 18 71  1  0
 19 72  1  0
 21 73  1  0
 21 74  1  0
 22 75  1  0
 23 76  1  0
 24 77  1  0
 24 78  1  0
 25 79  1  0
 26 80  1  0
 26 81  1  0
 27 82  1  0
 28 83  1  0
 29 84  1  0
 29 85  1  0
 30 86  1  0
 30 87  1  0
 31 88  1  0
 31 89  1  0
 32 90  1  0
 34 91  1  1
 35 92  1  0
 36 93  1  0
 36 94  1  0
 37 95  1  0
 37 96  1  0
 38 97  1  0
 38 98  1  0
 39 99  1  0
 39100  1  0
 40101  1  0
 40102  1  0
 41103  1  0
 41104  1  0
M  CHG  1  11   1
M  END
>  <fragInfo>  (1) 
17 21 24 26 27 28 29 30 31 32 70 73 74 77 78 80 81 82 83 84 85 86 87 88 89 90
1
2 43
3 44
4 45
5 46 47
6 48 49
7 50 51
8 52
9 53
10 54 55
11 56 57 58
12 59 60 61
13 62 63 64
14 65 66
15 67
16 68 69
18 71
19 72
20 25 35 38 40 79 92 97 98 101 102
22 75
23 76
33 34 36 37 39 41 91 93 94 95 96 99 100 103 104
42


>  <torsionInfo>  (1) 
1 28 1 0
17 42 0 23
1 12 1 12
1 13 1 13
2 3 2 3
2 5 2 5
2 18 2 17
3 4 3 4
3 33 3 22
5 6 5 6
6 7 6 7
7 8 7 8
8 9 8 9
9 10 9 10
9 11 9 11
14 15 14 15
14 16 14 16
15 22 15 20
15 35 15 19
16 34 16 22
18 42 17 23
19 42 18 23
23 42 21 23


>  <atomInfo>  (1) 
1  -0.3061637NA
2  0.05925944C 
3  0.12360038C 
4  -0.3766741OA
5  -0.0316880C 
6  -0.0387314C 
7  0.00192963C 
8  -0.2545793NA
9  0.19235152C 
10 -0.2681426NA
11 -0.3298166N 
12 -0.0133894C 
13 -0.0133894C 
14 -0.0231218C 
15 0.07867822C 
16 -0.0348965C 
17 0.04944081C 
18 -0.2330837NA
19 -0.3164890OA
20 -0.1389808SA
21 -0.0370607C 
22 -0.3906048OA
23 -0.3164890OA
24 -0.0517570C 
25 -0.3023785NA
26 -0.0486029C 
27 -0.0217206C 
28 0.01204485C 
29 -0.0372733C 
30 -0.0514889C 
31 -0.0488558C 
32 -0.0212096C 
33 -0.2741920NA
34 0.01209401C 
35 0.07956855C 
36 -0.0373978C 
37 -0.0505956C 
38 0.00539878C 
39 -0.0402530C 
40 0.00751491C 
41 0.00090274C 
42 0.02937952S 
43 0.05170725H 
44 0.07944679H 
45 0.21232213HD
46 0.02848246H 
47 0.02848246H 
48 0.02802012H 
49 0.02802012H 
50 0.04306066H 
51 0.04306066H 
52 0.12950350HD
53 0.13475222H 
54 0.12566817HD
55 0.12566817HD
56 0.34657709HD
57 0.34657709HD
58 0.34657709HD
59 0.03940525H 
60 0.03940525H 
61 0.03940525H 
62 0.03940525H 
63 0.03940525H 
64 0.03940525H 
65 0.02944952H 
66 0.02944952H 
67 0.06261872H 
68 0.02835444H 
69 0.02835444H 
70 0.04619326H 
71 0.13874798HD
72 0.23031433HD
73 0.02794634H 
74 0.02794634H 
75 0.21057055HD
76 0.23031433HD
77 0.02670689H 
78 0.02670689H 
79 0.12341771HD
80 0.02700659H 
81 0.02700659H 
82 0.03220468H 
83 0.04699352H 
84 0.02826585H 
85 0.02826585H 
86 0.02672225H 
87 0.02672225H 
88 0.02699142H 
89 0.02699142H 
90 0.03189992H 
91 0.04681268H 
92 0.06104647H 
93 0.02825775H 
94 0.02825775H 
95 0.02675855H 
96 0.02675855H 
97 0.04368666H 
98 0.04368666H 
99 0.02796617H 
1000.02796617H 
1010.03941010H 
1020.03941010H 
1030.04316330H 
1040.04316330H 


> <Uni-Dock RESULT> 
ENERGY=   -4.803  LOWER_BOUND=    0.000  UPPER_BOUND=    0.000
INTER + INTRA:         -12.711
INTER:                 -10.137
INTRA:                  -2.573
UNBOUND:                -2.573

$$$$
