1a
                    3D
 Structure written by MMmdl.
 27 29  0  0  1  0            999 V2000
  -15.3524  -19.2206  -25.9684 C   0  0  0  0  0  0
  -14.6526  -19.7081  -27.0823 C   0  0  0  0  0  0
  -15.8555  -20.1235  -25.0241 C   0  0  0  0  0  0
  -14.4541  -21.0636  -27.2485 C   0  0  0  0  0  0
  -15.6357  -21.4854  -25.1840 C   0  0  0  0  0  0
  -15.0526  -16.9445  -26.6871 N   0  0  0  0  0  0
  -14.9347  -21.9631  -26.2988 C   0  0  0  0  0  0
  -15.2162  -15.5610  -26.5929 C   0  0  0  0  0  0
  -15.9031  -15.0059  -25.5037 C   0  0  0  0  0  0
  -15.4462  -12.8187  -26.3599 C   0  0  0  0  0  0
  -14.7773  -13.3552  -27.4525 C   0  0  0  0  0  0
  -16.0203  -13.6235  -25.3815 C   0  0  0  0  0  0
  -14.6768  -14.7359  -27.5934 C   0  0  0  0  0  0
  -16.5313  -15.9392  -24.4895 C   0  0  0  0  0  0
  -16.2584  -17.2435  -24.7671 N   0  0  0  0  0  0
  -15.5317  -17.7669  -25.8203 C   0  0  0  0  0  0
  -17.2406  -15.6098  -23.5374 O   0  0  0  0  0  0
  -14.2525  -19.0464  -27.8382 H   0  0  0  0  0  0
  -16.3981  -19.7943  -24.1510 H   0  0  0  0  0  0
  -13.8938  -21.4078  -28.1049 H   0  0  0  0  0  0
  -15.9903  -22.1635  -24.4209 H   0  0  0  0  0  0
  -14.3604  -12.6891  -28.1964 H   0  0  0  0  0  0
  -16.5458  -13.1713  -24.5494 H   0  0  0  0  0  0
  -16.7352  -17.8915  -24.1540 H   0  0  0  0  0  0
  -14.1941  -15.1755  -28.4537 H   0  0  0  0  0  0
  -15.5319  -11.7476  -26.2520 H   0  0  0  0  0  0
  -14.7660  -23.0224  -26.4244 H   0  0  0  0  0  0
  1  2  1  0  0  0
  1  3  2  0  0  0
  1 16  1  0  0  0
  2  4  2  0  0  0
  2 18  1  0  0  0
  3  5  1  0  0  0
  3 19  1  0  0  0
  4  7  1  0  0  0
  4 20  1  0  0  0
  5  7  2  0  0  0
  5 21  1  0  0  0
  6  8  1  0  0  0
  6 16  2  0  0  0
  7 27  1  0  0  0
  8  9  2  0  0  0
  8 13  1  0  0  0
  9 12  1  0  0  0
  9 14  1  0  0  0
 10 11  1  0  0  0
 10 12  2  0  0  0
 10 26  1  0  0  0
 11 13  2  0  0  0
 11 22  1  0  0  0
 12 23  1  0  0  0
 13 25  1  0  0  0
 14 15  1  0  0  0
 14 17  2  0  0  0
 15 16  1  0  0  0
 15 24  1  0  0  0
M  END
> <Name>
1a

> <IC50[nM]>
540

